Version 4
SHEET 1 2356 848
WIRE -80 -64 -224 -64
WIRE 256 -64 -80 -64
WIRE -224 -48 -224 -64
WIRE 256 -48 256 -64
WIRE -80 -16 -80 -64
WIRE 112 0 96 0
WIRE 432 0 400 0
WIRE 464 0 432 0
WIRE 496 0 464 0
WIRE 576 0 560 0
WIRE 432 32 432 0
WIRE -224 48 -224 32
WIRE -80 112 -80 64
WIRE 112 112 -80 112
WIRE 432 112 432 96
WIRE 432 112 400 112
WIRE -80 128 -80 112
WIRE 432 128 432 112
WIRE -80 224 -80 208
WIRE 16 224 0 224
WIRE 112 224 96 224
WIRE 432 224 432 192
WIRE 432 224 400 224
WIRE 496 224 432 224
WIRE 720 224 576 224
WIRE 848 224 720 224
WIRE 1008 224 848 224
WIRE 1136 224 1008 224
WIRE 1216 224 1136 224
WIRE 1008 240 1008 224
WIRE 1136 240 1136 224
WIRE 1216 240 1216 224
WIRE 720 288 720 224
WIRE 848 288 848 224
WIRE 0 336 -16 336
WIRE 112 336 64 336
WIRE 576 336 400 336
WIRE 1008 336 1008 304
WIRE 1136 336 1136 304
WIRE 1216 336 1216 320
WIRE 576 400 576 336
WIRE 720 400 720 368
WIRE 720 400 576 400
WIRE 848 400 848 352
WIRE 848 400 720 400
WIRE 720 432 720 400
WIRE 848 432 848 400
WIRE 112 448 48 448
WIRE 432 448 400 448
WIRE 528 448 432 448
WIRE 208 512 208 496
WIRE 304 512 304 496
WIRE 432 512 432 448
WIRE 720 528 720 512
WIRE 848 528 848 496
WIRE 848 528 720 528
WIRE 528 560 528 448
WIRE 720 560 720 528
WIRE 432 608 432 592
WIRE 528 640 528 624
WIRE 432 688 432 672
FLAG -224 48 0
FLAG 0 224 0
FLAG 304 512 0
FLAG 576 0 0
FLAG -224 -64 IN
FLAG 208 512 0
FLAG 1008 336 0
FLAG 1216 224 OUT
FLAG 1216 336 0
FLAG 1136 336 0
FLAG 720 560 0
FLAG 464 0 INTVCC
FLAG 48 448 INTVCC
FLAG -16 336 0
FLAG 528 640 0
FLAG 432 688 0
FLAG -80 224 0
FLAG 16 0 OUT
SYMBOL LTC3603 256 224 R0
SYMATTR InstName U1
SYMBOL res 112 208 R90
WINDOW 0 0 56 VBottom 2
WINDOW 3 32 56 VTop 2
SYMATTR InstName ROSC
SYMATTR Value 105k
SYMBOL cap 496 16 R270
WINDOW 0 32 32 VTop 2
WINDOW 3 0 32 VBottom 2
SYMATTR InstName C2
SYMATTR Value 1µ
SYMBOL schottky 416 32 R0
WINDOW 0 40 13 Left 2
WINDOW 3 38 53 Left 2
SYMATTR InstName D1
SYMATTR Value CMDSH2-3
SYMATTR Description Diode
SYMATTR Type diode
SYMBOL cap 416 128 R0
SYMATTR InstName C3
SYMATTR Value .22µ
SYMBOL current 1216 240 M0
WINDOW 3 24 88 Invisible 2
WINDOW 123 0 0 Left 2
WINDOW 39 0 0 Left 2
WINDOW 0 -135 1 Left 2
SYMATTR Value PULSE(0 2.5 2m .25u .25u 1m 2m)
SYMATTR InstName LoadStep1
SYMBOL cap 1152 240 M0
WINDOW 123 33 91 Left 2
SYMATTR Value2 x1
SYMATTR InstName Cob1
SYMATTR Value 100µ
SYMATTR SpiceLine Rser=15m Lser=1.4n
SYMBOL cap 1024 240 M0
WINDOW 123 36 88 Left 2
SYMATTR Value2 x1
SYMATTR InstName Coc1
SYMATTR Value 10µ
SYMATTR SpiceLine Rser=4.48m Lser=0.889n
SYMBOL res 736 272 M0
SYMATTR InstName RfbTop1
SYMATTR Value 165k
SYMBOL res 736 416 M0
SYMATTR InstName RfbBot1
SYMATTR Value 36.5k
SYMBOL cap 832 352 M180
WINDOW 0 24 56 Left 2
WINDOW 3 24 8 Left 2
SYMATTR InstName CfbTop1
SYMATTR Value 22p
SYMBOL cap 832 496 M180
WINDOW 0 24 56 Left 2
WINDOW 3 24 8 Left 2
SYMATTR InstName CfbBot1
SYMATTR Value 0p
SYMBOL ind 480 240 R270
WINDOW 0 32 56 VTop 2
WINDOW 3 5 56 VBottom 2
SYMATTR InstName Lo1
SYMATTR Value 2.2µ
SYMATTR SpiceLine Rser=22.5m
SYMBOL voltage -224 -64 R0
WINDOW 3 20 93 Left 2
WINDOW 123 0 0 Left 2
WINDOW 39 0 0 Left 2
SYMATTR Value 12V
SYMATTR InstName Vin1
SYMBOL cap 64 320 R90
WINDOW 0 0 32 VBottom 2
WINDOW 3 32 32 VTop 2
SYMATTR InstName C1
SYMATTR Value 100p
SYMBOL res 416 496 R0
SYMATTR InstName R1
SYMATTR Value 10k
SYMBOL cap 416 608 R0
SYMATTR InstName C4
SYMATTR Value 330p
SYMBOL cap 512 560 R0
SYMATTR InstName C5
SYMATTR Value 100p
SYMBOL res -96 -32 R0
SYMATTR InstName R2
SYMATTR Value 105k
SYMBOL res -96 112 R0
SYMATTR InstName R3
SYMATTR Value 10k
SYMBOL res 112 -16 R90
WINDOW 0 0 56 VBottom 2
WINDOW 3 32 56 VTop 2
SYMATTR InstName R4
SYMATTR Value 10k
TEXT -640 232 Left 2 !.tran 10m startup
