Version 4
SHEET 1 1848 1364
WIRE 208 0 64 0
WIRE 336 0 208 0
WIRE 624 0 336 0
WIRE 64 48 64 0
WIRE 624 64 624 0
WIRE 208 112 208 0
WIRE 336 112 336 0
WIRE 64 160 64 128
WIRE 64 160 16 160
WIRE 96 160 64 160
WIRE 528 160 448 160
WIRE 624 160 624 144
WIRE 48 240 -32 240
WIRE 96 240 48 240
WIRE 480 240 448 240
WIRE 528 240 480 240
WIRE 624 240 528 240
WIRE 528 256 528 240
WIRE 48 272 48 240
WIRE 480 272 480 240
WIRE 480 272 48 272
WIRE 16 320 0 320
WIRE 96 320 80 320
WIRE 528 320 448 320
WIRE 96 400 48 400
WIRE 528 400 528 384
WIRE 528 400 448 400
WIRE 656 400 528 400
WIRE 800 400 736 400
WIRE 992 400 800 400
WIRE 1104 400 992 400
WIRE 1248 400 1104 400
WIRE 992 432 992 400
WIRE 1104 432 1104 400
WIRE 1248 432 1248 400
WIRE 800 448 800 400
WIRE 800 448 704 448
WIRE 880 448 800 448
WIRE 800 464 800 448
WIRE 704 480 704 448
WIRE 704 480 448 480
WIRE 880 480 880 448
WIRE 992 528 992 496
WIRE 1104 528 1104 496
WIRE 1248 528 1248 512
WIRE -32 560 -32 240
WIRE 96 560 -32 560
WIRE 800 560 800 544
WIRE 800 560 448 560
WIRE 880 560 880 544
WIRE 880 560 800 560
WIRE 800 576 800 560
WIRE 880 592 880 560
WIRE -48 640 -96 640
WIRE 96 640 32 640
WIRE 512 640 448 640
WIRE 576 640 512 640
WIRE 720 640 640 640
WIRE 736 640 720 640
WIRE 880 656 800 656
WIRE 800 672 800 656
WIRE 208 704 208 688
WIRE 336 704 336 688
WIRE 336 704 208 704
WIRE 208 720 208 704
WIRE 512 720 512 640
WIRE 608 720 576 720
WIRE 720 720 720 640
WIRE 720 720 688 720
FLAG 688 240 0
FLAG 1248 528 0
FLAG 800 672 0
FLAG 992 528 0
FLAG 624 160 0
FLAG 0 320 0
FLAG 624 0 IN
FLAG 1248 400 OUT
FLAG 736 640 0
FLAG 1104 528 0
FLAG -96 640 0
FLAG 48 400 0
FLAG 208 720 0
FLAG -64 160 0
SYMBOL LTC3605 272 400 R0
SYMATTR InstName U2
SYMBOL RES 544 256 R180
WINDOW 0 -35 82 Left 2
WINDOW 3 -58 53 Left 2
SYMATTR InstName R0
SYMATTR Value 100K
SYMBOL res 784 448 R0
WINDOW 3 -84 61 Left 2
SYMATTR Value 100k
SYMATTR InstName R2
SYMBOL res 784 560 R0
WINDOW 3 -99 23 Left 2
SYMATTR Value 22.1k
SYMATTR InstName R1
SYMBOL schottky 544 256 M0
WINDOW 0 -50 8 Left 2
WINDOW 3 -108 36 Left 2
SYMATTR InstName Dbst
SYMATTR Value MBR0530L
SYMBOL cap 624 256 R270
WINDOW 0 32 32 VTop 2
WINDOW 3 0 32 VBottom 2
SYMATTR InstName Cvcc
SYMATTR Value 2.2µ
SYMBOL ind 640 416 R270
WINDOW 0 32 56 VTop 2
WINDOW 3 5 56 VBottom 2
SYMATTR InstName L1
SYMATTR Value 0.47µ
SYMATTR SpiceLine Rser=5.4m
SYMBOL polcap 976 432 R0
SYMATTR InstName Cbulk
SYMATTR Value 0µ
SYMATTR Value2 x0
SYMATTR SpiceLine Rser=0m MTBF=0 Lser=0n ppPkg=0
SYMBOL VOLTAGE 624 48 R0
WINDOW 123 0 0 Left 2
WINDOW 39 0 0 Left 2
SYMATTR InstName Vin
SYMATTR Value 12V
SYMBOL cap 80 304 R90
WINDOW 0 0 32 VBottom 2
WINDOW 3 32 32 VTop 2
SYMATTR InstName Css
SYMATTR Value 10n
SYMBOL cap 512 320 R0
WINDOW 0 36 15 Left 2
WINDOW 3 25 49 Left 2
SYMATTR InstName Cbst
SYMATTR Value 0.1µ
SYMBOL cap 576 656 R270
WINDOW 0 32 32 VTop 2
WINDOW 3 0 32 VBottom 2
WINDOW 39 -21 132 VBottom 2
SYMATTR InstName Cthp
SYMATTR Value 15p
SYMBOL res 48 624 R90
WINDOW 0 0 56 VBottom 2
WINDOW 3 32 56 VTop 2
SYMATTR InstName Ron
SYMATTR Value 63.4k
SYMBOL polcap 1088 432 R0
SYMATTR InstName Cce
SYMATTR Value 21.975238µ
SYMATTR Value2 x2
SYMATTR SpiceLine Rser=2.3m MTBF=0 Lser=1.05n ppPkg=2
SYMBOL load2 1248 432 R0
WINDOW 3 25 84 Invisible 2
WINDOW 123 0 0 Left 2
WINDOW 39 0 0 Left 2
SYMATTR Value PWL(0 0 3m 0 3.001m 5 4m 5 4.001m 0)
SYMATTR InstName Iload
SYMBOL cap 512 736 R270
WINDOW 0 32 32 VTop 2
WINDOW 3 0 32 VBottom 2
WINDOW 39 -21 132 VBottom 2
SYMATTR InstName Cth
SYMATTR Value 62p
SYMBOL res 704 704 R90
WINDOW 0 0 56 VBottom 2
WINDOW 3 32 56 VTop 2
SYMATTR InstName Rth
SYMATTR Value 13.3k
SYMBOL cap 864 480 R0
WINDOW 0 26 10 Left 2
WINDOW 3 25 49 Left 2
SYMATTR InstName C2
SYMATTR Value 15p
SYMBOL cap 864 592 R0
WINDOW 0 26 10 Left 2
WINDOW 3 25 49 Left 2
SYMATTR InstName C1
SYMATTR Value 0p
SYMBOL res 48 32 R0
SYMATTR InstName R3
SYMATTR Value 100k
SYMBOL res 32 144 R90
WINDOW 0 0 56 VBottom 2
WINDOW 3 32 56 VTop 2
SYMATTR InstName R4
SYMATTR Value 22.1k
TEXT -40 848 Left 2 !.tran 5m startup
TEXT -64 816 Left 2 ;If simulation model is not found, please "Sync release".
